[root]
type=Root
children=testsys
eventq_index=0
full_system=true
sim_quantum=0
time_sync_enable=false
time_sync_period=100000000000
time_sync_spin_threshold=100000000

[testsys]
type=ArmSystem
children=clk_domain cpu_cluster dmabridge dvfs_handler iobridge iobus mem_ctrls membus pci_devices realview release terminal vncserver voltage_domain workload
auto_reset_addr=true
auto_unlink_shared_backstore=false
cache_line_size=64
eventq_index=0
exit_on_work_items=false
gic_cpu_addr=738205696
have_large_asid_64=false
highest_el_is_64=true
init_param=0
m5ops_base=268500992
mem_mode=atomic
mem_ranges=2147483648:4294967296
memories=testsys.mem_ctrls.dram testsys.realview.bootmem testsys.realview.flash0 testsys.realview.flash1 testsys.realview.non_trusted_sram testsys.realview.trusted_dram testsys.realview.trusted_sram testsys.realview.vram
mmap_using_noreserve=false
multi_proc=true
multi_thread=false
num_work_ids=16
phys_addr_range_64=40
readfile=/home/a599m019/gem5-fullsys-enviroment/configs/run-scripts/example.sh
redirect_paths=
release=testsys.release
reset_addr=0
semihosting=Null
shadow_rom_ranges=
shared_backstore=
sve_vl=1
symbolfile=
thermal_components=
thermal_model=Null
work_begin_ckpt_count=0
work_begin_cpu_id_exit=-1
work_begin_exit_count=0
work_cpus_ckpt_count=0
work_end_ckpt_count=0
work_end_exit_count=0
work_item_id=-1
workload=testsys.workload
system_port=testsys.membus.cpu_side_ports[1]

[testsys.clk_domain]
type=SrcClockDomain
clock=1000
domain_id=-1
eventq_index=0
init_perf_level=0
voltage_domain=testsys.voltage_domain

[testsys.cpu_cluster]
type=SubSystem
children=clk_domain cpus0 cpus1 cpus2 cpus3 voltage_domain
eventq_index=0
thermal_domain=Null

[testsys.cpu_cluster.clk_domain]
type=SrcClockDomain
clock=250
domain_id=-1
eventq_index=0
init_perf_level=0
voltage_domain=testsys.cpu_cluster.voltage_domain

[testsys.cpu_cluster.cpus0]
type=BaseAtomicSimpleCPU
children=decoder interrupts isa mmu power_state tracer
branchPred=Null
checker=Null
clk_domain=testsys.cpu_cluster.clk_domain
cpu_id=0
decoder=testsys.cpu_cluster.cpus0.decoder
do_checkpoint_insts=true
do_statistics_insts=true
eventq_index=0
function_trace=false
function_trace_start=0
interrupts=testsys.cpu_cluster.cpus0.interrupts
isa=testsys.cpu_cluster.cpus0.isa
max_insts_all_threads=0
max_insts_any_thread=0
mmu=testsys.cpu_cluster.cpus0.mmu
numThreads=1
power_gating_on_idle=false
power_model=
power_state=testsys.cpu_cluster.cpus0.power_state
progress_interval=0
pwr_gating_latency=300
simpoint_start_insts=
simulate_data_stalls=false
simulate_inst_stalls=false
socket_id=0
switched_out=false
syscallRetryLatency=10000
system=testsys
tracer=testsys.cpu_cluster.cpus0.tracer
width=1
workload=
dcache_port=testsys.membus.cpu_side_ports[3]
icache_port=testsys.membus.cpu_side_ports[2]

[testsys.cpu_cluster.cpus0.decoder]
type=ArmDecoder
dvm_enabled=false
eventq_index=0
isa=testsys.cpu_cluster.cpus0.isa

[testsys.cpu_cluster.cpus0.interrupts]
type=ArmInterrupts
eventq_index=0

[testsys.cpu_cluster.cpus0.isa]
type=ArmISA
children=release_se
decoderFlavor=Generic
eventq_index=0
fpsid=1090793632
id_aa64afr0_el1=0
id_aa64afr1_el1=0
id_aa64dfr0_el1=15790086
id_aa64dfr1_el1=0
id_aa64isar0_el1=268435456
id_aa64isar1_el1=16846864
id_aa64mmfr0_el1=15728642
id_aa64mmfr1_el1=1052704
id_aa64mmfr2_el1=65552
id_isar0=34607377
id_isar1=34677009
id_isar2=555950401
id_isar3=17899825
id_isar4=268501314
id_isar5=285212672
id_isar6=1
id_mmfr0=270536963
id_mmfr1=0
id_mmfr2=19070976
id_mmfr3=34611729
id_mmfr4=0
impdef_nop=false
midr=0
pmu=Null
release_se=testsys.cpu_cluster.cpus0.isa.release_se
sve_vl_se=1
system=testsys

[testsys.cpu_cluster.cpus0.isa.release_se]
type=ArmRelease
eventq_index=0
extensions=CRYPTO FEAT_LSE FEAT_RDM FEAT_SVE FEAT_FCMA FEAT_JSCVT FEAT_PAuth TME

[testsys.cpu_cluster.cpus0.mmu]
type=ArmMMU
children=dtb dtb_walker itb itb_walker l2_shared stage2_dtb stage2_dtb_walker stage2_itb stage2_itb_walker
dtb=testsys.cpu_cluster.cpus0.mmu.dtb
dtb_walker=testsys.cpu_cluster.cpus0.mmu.dtb_walker
eventq_index=0
itb=testsys.cpu_cluster.cpus0.mmu.itb
itb_walker=testsys.cpu_cluster.cpus0.mmu.itb_walker
release_se=testsys.cpu_cluster.cpus0.isa.release_se
stage2_dtb=testsys.cpu_cluster.cpus0.mmu.stage2_dtb
stage2_dtb_walker=testsys.cpu_cluster.cpus0.mmu.stage2_dtb_walker
stage2_itb=testsys.cpu_cluster.cpus0.mmu.stage2_itb
stage2_itb_walker=testsys.cpu_cluster.cpus0.mmu.stage2_itb_walker
sys=testsys

[testsys.cpu_cluster.cpus0.mmu.dtb]
type=ArmTLB
entry_type=data
eventq_index=0
is_stage2=false
next_level=testsys.cpu_cluster.cpus0.mmu.l2_shared
partial_levels=
size=64
sys=testsys

[testsys.cpu_cluster.cpus0.mmu.dtb_walker]
type=ArmTableWalker
children=power_state
clk_domain=testsys.cpu_cluster.clk_domain
eventq_index=0
is_stage2=false
num_squash_per_cycle=2
power_model=
power_state=testsys.cpu_cluster.cpus0.mmu.dtb_walker.power_state
sys=testsys
port=testsys.membus.cpu_side_ports[5]

[testsys.cpu_cluster.cpus0.mmu.dtb_walker.power_state]
type=PowerState
clk_gate_bins=20
clk_gate_max=1000000000000
clk_gate_min=1000
default_state=UNDEFINED
eventq_index=0
leaders=
possible_states=

[testsys.cpu_cluster.cpus0.mmu.itb]
type=ArmTLB
entry_type=instruction
eventq_index=0
is_stage2=false
next_level=testsys.cpu_cluster.cpus0.mmu.l2_shared
partial_levels=
size=64
sys=testsys

[testsys.cpu_cluster.cpus0.mmu.itb_walker]
type=ArmTableWalker
children=power_state
clk_domain=testsys.cpu_cluster.clk_domain
eventq_index=0
is_stage2=false
num_squash_per_cycle=2
power_model=
power_state=testsys.cpu_cluster.cpus0.mmu.itb_walker.power_state
sys=testsys
port=testsys.membus.cpu_side_ports[4]

[testsys.cpu_cluster.cpus0.mmu.itb_walker.power_state]
type=PowerState
clk_gate_bins=20
clk_gate_max=1000000000000
clk_gate_min=1000
default_state=UNDEFINED
eventq_index=0
leaders=
possible_states=

[testsys.cpu_cluster.cpus0.mmu.l2_shared]
type=ArmTLB
entry_type=unified
eventq_index=0
is_stage2=false
next_level=Null
partial_levels=L2
size=1280
sys=testsys

[testsys.cpu_cluster.cpus0.mmu.stage2_dtb]
type=ArmTLB
entry_type=data
eventq_index=0
is_stage2=true
next_level=Null
partial_levels=
size=32
sys=testsys

[testsys.cpu_cluster.cpus0.mmu.stage2_dtb_walker]
type=ArmTableWalker
children=power_state
clk_domain=testsys.cpu_cluster.clk_domain
eventq_index=0
is_stage2=true
num_squash_per_cycle=2
power_model=
power_state=testsys.cpu_cluster.cpus0.mmu.stage2_dtb_walker.power_state
sys=testsys
port=testsys.membus.cpu_side_ports[7]

[testsys.cpu_cluster.cpus0.mmu.stage2_dtb_walker.power_state]
type=PowerState
clk_gate_bins=20
clk_gate_max=1000000000000
clk_gate_min=1000
default_state=UNDEFINED
eventq_index=0
leaders=
possible_states=

[testsys.cpu_cluster.cpus0.mmu.stage2_itb]
type=ArmTLB
entry_type=instruction
eventq_index=0
is_stage2=true
next_level=Null
partial_levels=
size=32
sys=testsys

[testsys.cpu_cluster.cpus0.mmu.stage2_itb_walker]
type=ArmTableWalker
children=power_state
clk_domain=testsys.cpu_cluster.clk_domain
eventq_index=0
is_stage2=true
num_squash_per_cycle=2
power_model=
power_state=testsys.cpu_cluster.cpus0.mmu.stage2_itb_walker.power_state
sys=testsys
port=testsys.membus.cpu_side_ports[6]

[testsys.cpu_cluster.cpus0.mmu.stage2_itb_walker.power_state]
type=PowerState
clk_gate_bins=20
clk_gate_max=1000000000000
clk_gate_min=1000
default_state=UNDEFINED
eventq_index=0
leaders=
possible_states=

[testsys.cpu_cluster.cpus0.power_state]
type=PowerState
clk_gate_bins=20
clk_gate_max=1000000000000
clk_gate_min=1000
default_state=UNDEFINED
eventq_index=0
leaders=
possible_states=ON CLK_GATED OFF

[testsys.cpu_cluster.cpus0.tracer]
type=ExeTracer
eventq_index=0

[testsys.cpu_cluster.cpus1]
type=BaseAtomicSimpleCPU
children=decoder interrupts isa mmu power_state tracer
branchPred=Null
checker=Null
clk_domain=testsys.cpu_cluster.clk_domain
cpu_id=1
decoder=testsys.cpu_cluster.cpus1.decoder
do_checkpoint_insts=true
do_statistics_insts=true
eventq_index=0
function_trace=false
function_trace_start=0
interrupts=testsys.cpu_cluster.cpus1.interrupts
isa=testsys.cpu_cluster.cpus1.isa
max_insts_all_threads=0
max_insts_any_thread=0
mmu=testsys.cpu_cluster.cpus1.mmu
numThreads=1
power_gating_on_idle=false
power_model=
power_state=testsys.cpu_cluster.cpus1.power_state
progress_interval=0
pwr_gating_latency=300
simpoint_start_insts=
simulate_data_stalls=false
simulate_inst_stalls=false
socket_id=0
switched_out=false
syscallRetryLatency=10000
system=testsys
tracer=testsys.cpu_cluster.cpus1.tracer
width=1
workload=
dcache_port=testsys.membus.cpu_side_ports[9]
icache_port=testsys.membus.cpu_side_ports[8]

[testsys.cpu_cluster.cpus1.decoder]
type=ArmDecoder
dvm_enabled=false
eventq_index=0
isa=testsys.cpu_cluster.cpus1.isa

[testsys.cpu_cluster.cpus1.interrupts]
type=ArmInterrupts
eventq_index=0

[testsys.cpu_cluster.cpus1.isa]
type=ArmISA
children=release_se
decoderFlavor=Generic
eventq_index=0
fpsid=1090793632
id_aa64afr0_el1=0
id_aa64afr1_el1=0
id_aa64dfr0_el1=15790086
id_aa64dfr1_el1=0
id_aa64isar0_el1=268435456
id_aa64isar1_el1=16846864
id_aa64mmfr0_el1=15728642
id_aa64mmfr1_el1=1052704
id_aa64mmfr2_el1=65552
id_isar0=34607377
id_isar1=34677009
id_isar2=555950401
id_isar3=17899825
id_isar4=268501314
id_isar5=285212672
id_isar6=1
id_mmfr0=270536963
id_mmfr1=0
id_mmfr2=19070976
id_mmfr3=34611729
id_mmfr4=0
impdef_nop=false
midr=0
pmu=Null
release_se=testsys.cpu_cluster.cpus1.isa.release_se
sve_vl_se=1
system=testsys

[testsys.cpu_cluster.cpus1.isa.release_se]
type=ArmRelease
eventq_index=0
extensions=CRYPTO FEAT_LSE FEAT_RDM FEAT_SVE FEAT_FCMA FEAT_JSCVT FEAT_PAuth TME

[testsys.cpu_cluster.cpus1.mmu]
type=ArmMMU
children=dtb dtb_walker itb itb_walker l2_shared stage2_dtb stage2_dtb_walker stage2_itb stage2_itb_walker
dtb=testsys.cpu_cluster.cpus1.mmu.dtb
dtb_walker=testsys.cpu_cluster.cpus1.mmu.dtb_walker
eventq_index=0
itb=testsys.cpu_cluster.cpus1.mmu.itb
itb_walker=testsys.cpu_cluster.cpus1.mmu.itb_walker
release_se=testsys.cpu_cluster.cpus1.isa.release_se
stage2_dtb=testsys.cpu_cluster.cpus1.mmu.stage2_dtb
stage2_dtb_walker=testsys.cpu_cluster.cpus1.mmu.stage2_dtb_walker
stage2_itb=testsys.cpu_cluster.cpus1.mmu.stage2_itb
stage2_itb_walker=testsys.cpu_cluster.cpus1.mmu.stage2_itb_walker
sys=testsys

[testsys.cpu_cluster.cpus1.mmu.dtb]
type=ArmTLB
entry_type=data
eventq_index=0
is_stage2=false
next_level=testsys.cpu_cluster.cpus1.mmu.l2_shared
partial_levels=
size=64
sys=testsys

[testsys.cpu_cluster.cpus1.mmu.dtb_walker]
type=ArmTableWalker
children=power_state
clk_domain=testsys.cpu_cluster.clk_domain
eventq_index=0
is_stage2=false
num_squash_per_cycle=2
power_model=
power_state=testsys.cpu_cluster.cpus1.mmu.dtb_walker.power_state
sys=testsys
port=testsys.membus.cpu_side_ports[11]

[testsys.cpu_cluster.cpus1.mmu.dtb_walker.power_state]
type=PowerState
clk_gate_bins=20
clk_gate_max=1000000000000
clk_gate_min=1000
default_state=UNDEFINED
eventq_index=0
leaders=
possible_states=

[testsys.cpu_cluster.cpus1.mmu.itb]
type=ArmTLB
entry_type=instruction
eventq_index=0
is_stage2=false
next_level=testsys.cpu_cluster.cpus1.mmu.l2_shared
partial_levels=
size=64
sys=testsys

[testsys.cpu_cluster.cpus1.mmu.itb_walker]
type=ArmTableWalker
children=power_state
clk_domain=testsys.cpu_cluster.clk_domain
eventq_index=0
is_stage2=false
num_squash_per_cycle=2
power_model=
power_state=testsys.cpu_cluster.cpus1.mmu.itb_walker.power_state
sys=testsys
port=testsys.membus.cpu_side_ports[10]

[testsys.cpu_cluster.cpus1.mmu.itb_walker.power_state]
type=PowerState
clk_gate_bins=20
clk_gate_max=1000000000000
clk_gate_min=1000
default_state=UNDEFINED
eventq_index=0
leaders=
possible_states=

[testsys.cpu_cluster.cpus1.mmu.l2_shared]
type=ArmTLB
entry_type=unified
eventq_index=0
is_stage2=false
next_level=Null
partial_levels=L2
size=1280
sys=testsys

[testsys.cpu_cluster.cpus1.mmu.stage2_dtb]
type=ArmTLB
entry_type=data
eventq_index=0
is_stage2=true
next_level=Null
partial_levels=
size=32
sys=testsys

[testsys.cpu_cluster.cpus1.mmu.stage2_dtb_walker]
type=ArmTableWalker
children=power_state
clk_domain=testsys.cpu_cluster.clk_domain
eventq_index=0
is_stage2=true
num_squash_per_cycle=2
power_model=
power_state=testsys.cpu_cluster.cpus1.mmu.stage2_dtb_walker.power_state
sys=testsys
port=testsys.membus.cpu_side_ports[13]

[testsys.cpu_cluster.cpus1.mmu.stage2_dtb_walker.power_state]
type=PowerState
clk_gate_bins=20
clk_gate_max=1000000000000
clk_gate_min=1000
default_state=UNDEFINED
eventq_index=0
leaders=
possible_states=

[testsys.cpu_cluster.cpus1.mmu.stage2_itb]
type=ArmTLB
entry_type=instruction
eventq_index=0
is_stage2=true
next_level=Null
partial_levels=
size=32
sys=testsys

[testsys.cpu_cluster.cpus1.mmu.stage2_itb_walker]
type=ArmTableWalker
children=power_state
clk_domain=testsys.cpu_cluster.clk_domain
eventq_index=0
is_stage2=true
num_squash_per_cycle=2
power_model=
power_state=testsys.cpu_cluster.cpus1.mmu.stage2_itb_walker.power_state
sys=testsys
port=testsys.membus.cpu_side_ports[12]

[testsys.cpu_cluster.cpus1.mmu.stage2_itb_walker.power_state]
type=PowerState
clk_gate_bins=20
clk_gate_max=1000000000000
clk_gate_min=1000
default_state=UNDEFINED
eventq_index=0
leaders=
possible_states=

[testsys.cpu_cluster.cpus1.power_state]
type=PowerState
clk_gate_bins=20
clk_gate_max=1000000000000
clk_gate_min=1000
default_state=UNDEFINED
eventq_index=0
leaders=
possible_states=ON CLK_GATED OFF

[testsys.cpu_cluster.cpus1.tracer]
type=ExeTracer
eventq_index=0

[testsys.cpu_cluster.cpus2]
type=BaseAtomicSimpleCPU
children=decoder interrupts isa mmu power_state tracer
branchPred=Null
checker=Null
clk_domain=testsys.cpu_cluster.clk_domain
cpu_id=2
decoder=testsys.cpu_cluster.cpus2.decoder
do_checkpoint_insts=true
do_statistics_insts=true
eventq_index=0
function_trace=false
function_trace_start=0
interrupts=testsys.cpu_cluster.cpus2.interrupts
isa=testsys.cpu_cluster.cpus2.isa
max_insts_all_threads=0
max_insts_any_thread=0
mmu=testsys.cpu_cluster.cpus2.mmu
numThreads=1
power_gating_on_idle=false
power_model=
power_state=testsys.cpu_cluster.cpus2.power_state
progress_interval=0
pwr_gating_latency=300
simpoint_start_insts=
simulate_data_stalls=false
simulate_inst_stalls=false
socket_id=0
switched_out=false
syscallRetryLatency=10000
system=testsys
tracer=testsys.cpu_cluster.cpus2.tracer
width=1
workload=
dcache_port=testsys.membus.cpu_side_ports[15]
icache_port=testsys.membus.cpu_side_ports[14]

[testsys.cpu_cluster.cpus2.decoder]
type=ArmDecoder
dvm_enabled=false
eventq_index=0
isa=testsys.cpu_cluster.cpus2.isa

[testsys.cpu_cluster.cpus2.interrupts]
type=ArmInterrupts
eventq_index=0

[testsys.cpu_cluster.cpus2.isa]
type=ArmISA
children=release_se
decoderFlavor=Generic
eventq_index=0
fpsid=1090793632
id_aa64afr0_el1=0
id_aa64afr1_el1=0
id_aa64dfr0_el1=15790086
id_aa64dfr1_el1=0
id_aa64isar0_el1=268435456
id_aa64isar1_el1=16846864
id_aa64mmfr0_el1=15728642
id_aa64mmfr1_el1=1052704
id_aa64mmfr2_el1=65552
id_isar0=34607377
id_isar1=34677009
id_isar2=555950401
id_isar3=17899825
id_isar4=268501314
id_isar5=285212672
id_isar6=1
id_mmfr0=270536963
id_mmfr1=0
id_mmfr2=19070976
id_mmfr3=34611729
id_mmfr4=0
impdef_nop=false
midr=0
pmu=Null
release_se=testsys.cpu_cluster.cpus2.isa.release_se
sve_vl_se=1
system=testsys

[testsys.cpu_cluster.cpus2.isa.release_se]
type=ArmRelease
eventq_index=0
extensions=CRYPTO FEAT_LSE FEAT_RDM FEAT_SVE FEAT_FCMA FEAT_JSCVT FEAT_PAuth TME

[testsys.cpu_cluster.cpus2.mmu]
type=ArmMMU
children=dtb dtb_walker itb itb_walker l2_shared stage2_dtb stage2_dtb_walker stage2_itb stage2_itb_walker
dtb=testsys.cpu_cluster.cpus2.mmu.dtb
dtb_walker=testsys.cpu_cluster.cpus2.mmu.dtb_walker
eventq_index=0
itb=testsys.cpu_cluster.cpus2.mmu.itb
itb_walker=testsys.cpu_cluster.cpus2.mmu.itb_walker
release_se=testsys.cpu_cluster.cpus2.isa.release_se
stage2_dtb=testsys.cpu_cluster.cpus2.mmu.stage2_dtb
stage2_dtb_walker=testsys.cpu_cluster.cpus2.mmu.stage2_dtb_walker
stage2_itb=testsys.cpu_cluster.cpus2.mmu.stage2_itb
stage2_itb_walker=testsys.cpu_cluster.cpus2.mmu.stage2_itb_walker
sys=testsys

[testsys.cpu_cluster.cpus2.mmu.dtb]
type=ArmTLB
entry_type=data
eventq_index=0
is_stage2=false
next_level=testsys.cpu_cluster.cpus2.mmu.l2_shared
partial_levels=
size=64
sys=testsys

[testsys.cpu_cluster.cpus2.mmu.dtb_walker]
type=ArmTableWalker
children=power_state
clk_domain=testsys.cpu_cluster.clk_domain
eventq_index=0
is_stage2=false
num_squash_per_cycle=2
power_model=
power_state=testsys.cpu_cluster.cpus2.mmu.dtb_walker.power_state
sys=testsys
port=testsys.membus.cpu_side_ports[17]

[testsys.cpu_cluster.cpus2.mmu.dtb_walker.power_state]
type=PowerState
clk_gate_bins=20
clk_gate_max=1000000000000
clk_gate_min=1000
default_state=UNDEFINED
eventq_index=0
leaders=
possible_states=

[testsys.cpu_cluster.cpus2.mmu.itb]
type=ArmTLB
entry_type=instruction
eventq_index=0
is_stage2=false
next_level=testsys.cpu_cluster.cpus2.mmu.l2_shared
partial_levels=
size=64
sys=testsys

[testsys.cpu_cluster.cpus2.mmu.itb_walker]
type=ArmTableWalker
children=power_state
clk_domain=testsys.cpu_cluster.clk_domain
eventq_index=0
is_stage2=false
num_squash_per_cycle=2
power_model=
power_state=testsys.cpu_cluster.cpus2.mmu.itb_walker.power_state
sys=testsys
port=testsys.membus.cpu_side_ports[16]

[testsys.cpu_cluster.cpus2.mmu.itb_walker.power_state]
type=PowerState
clk_gate_bins=20
clk_gate_max=1000000000000
clk_gate_min=1000
default_state=UNDEFINED
eventq_index=0
leaders=
possible_states=

[testsys.cpu_cluster.cpus2.mmu.l2_shared]
type=ArmTLB
entry_type=unified
eventq_index=0
is_stage2=false
next_level=Null
partial_levels=L2
size=1280
sys=testsys

[testsys.cpu_cluster.cpus2.mmu.stage2_dtb]
type=ArmTLB
entry_type=data
eventq_index=0
is_stage2=true
next_level=Null
partial_levels=
size=32
sys=testsys

[testsys.cpu_cluster.cpus2.mmu.stage2_dtb_walker]
type=ArmTableWalker
children=power_state
clk_domain=testsys.cpu_cluster.clk_domain
eventq_index=0
is_stage2=true
num_squash_per_cycle=2
power_model=
power_state=testsys.cpu_cluster.cpus2.mmu.stage2_dtb_walker.power_state
sys=testsys
port=testsys.membus.cpu_side_ports[19]

[testsys.cpu_cluster.cpus2.mmu.stage2_dtb_walker.power_state]
type=PowerState
clk_gate_bins=20
clk_gate_max=1000000000000
clk_gate_min=1000
default_state=UNDEFINED
eventq_index=0
leaders=
possible_states=

[testsys.cpu_cluster.cpus2.mmu.stage2_itb]
type=ArmTLB
entry_type=instruction
eventq_index=0
is_stage2=true
next_level=Null
partial_levels=
size=32
sys=testsys

[testsys.cpu_cluster.cpus2.mmu.stage2_itb_walker]
type=ArmTableWalker
children=power_state
clk_domain=testsys.cpu_cluster.clk_domain
eventq_index=0
is_stage2=true
num_squash_per_cycle=2
power_model=
power_state=testsys.cpu_cluster.cpus2.mmu.stage2_itb_walker.power_state
sys=testsys
port=testsys.membus.cpu_side_ports[18]

[testsys.cpu_cluster.cpus2.mmu.stage2_itb_walker.power_state]
type=PowerState
clk_gate_bins=20
clk_gate_max=1000000000000
clk_gate_min=1000
default_state=UNDEFINED
eventq_index=0
leaders=
possible_states=

[testsys.cpu_cluster.cpus2.power_state]
type=PowerState
clk_gate_bins=20
clk_gate_max=1000000000000
clk_gate_min=1000
default_state=UNDEFINED
eventq_index=0
leaders=
possible_states=ON CLK_GATED OFF

[testsys.cpu_cluster.cpus2.tracer]
type=ExeTracer
eventq_index=0

[testsys.cpu_cluster.cpus3]
type=BaseAtomicSimpleCPU
children=decoder interrupts isa mmu power_state tracer
branchPred=Null
checker=Null
clk_domain=testsys.cpu_cluster.clk_domain
cpu_id=3
decoder=testsys.cpu_cluster.cpus3.decoder
do_checkpoint_insts=true
do_statistics_insts=true
eventq_index=0
function_trace=false
function_trace_start=0
interrupts=testsys.cpu_cluster.cpus3.interrupts
isa=testsys.cpu_cluster.cpus3.isa
max_insts_all_threads=0
max_insts_any_thread=0
mmu=testsys.cpu_cluster.cpus3.mmu
numThreads=1
power_gating_on_idle=false
power_model=
power_state=testsys.cpu_cluster.cpus3.power_state
progress_interval=0
pwr_gating_latency=300
simpoint_start_insts=
simulate_data_stalls=false
simulate_inst_stalls=false
socket_id=0
switched_out=false
syscallRetryLatency=10000
system=testsys
tracer=testsys.cpu_cluster.cpus3.tracer
width=1
workload=
dcache_port=testsys.membus.cpu_side_ports[21]
icache_port=testsys.membus.cpu_side_ports[20]

[testsys.cpu_cluster.cpus3.decoder]
type=ArmDecoder
dvm_enabled=false
eventq_index=0
isa=testsys.cpu_cluster.cpus3.isa

[testsys.cpu_cluster.cpus3.interrupts]
type=ArmInterrupts
eventq_index=0

[testsys.cpu_cluster.cpus3.isa]
type=ArmISA
children=release_se
decoderFlavor=Generic
eventq_index=0
fpsid=1090793632
id_aa64afr0_el1=0
id_aa64afr1_el1=0
id_aa64dfr0_el1=15790086
id_aa64dfr1_el1=0
id_aa64isar0_el1=268435456
id_aa64isar1_el1=16846864
id_aa64mmfr0_el1=15728642
id_aa64mmfr1_el1=1052704
id_aa64mmfr2_el1=65552
id_isar0=34607377
id_isar1=34677009
id_isar2=555950401
id_isar3=17899825
id_isar4=268501314
id_isar5=285212672
id_isar6=1
id_mmfr0=270536963
id_mmfr1=0
id_mmfr2=19070976
id_mmfr3=34611729
id_mmfr4=0
impdef_nop=false
midr=0
pmu=Null
release_se=testsys.cpu_cluster.cpus3.isa.release_se
sve_vl_se=1
system=testsys

[testsys.cpu_cluster.cpus3.isa.release_se]
type=ArmRelease
eventq_index=0
extensions=CRYPTO FEAT_LSE FEAT_RDM FEAT_SVE FEAT_FCMA FEAT_JSCVT FEAT_PAuth TME

[testsys.cpu_cluster.cpus3.mmu]
type=ArmMMU
children=dtb dtb_walker itb itb_walker l2_shared stage2_dtb stage2_dtb_walker stage2_itb stage2_itb_walker
dtb=testsys.cpu_cluster.cpus3.mmu.dtb
dtb_walker=testsys.cpu_cluster.cpus3.mmu.dtb_walker
eventq_index=0
itb=testsys.cpu_cluster.cpus3.mmu.itb
itb_walker=testsys.cpu_cluster.cpus3.mmu.itb_walker
release_se=testsys.cpu_cluster.cpus3.isa.release_se
stage2_dtb=testsys.cpu_cluster.cpus3.mmu.stage2_dtb
stage2_dtb_walker=testsys.cpu_cluster.cpus3.mmu.stage2_dtb_walker
stage2_itb=testsys.cpu_cluster.cpus3.mmu.stage2_itb
stage2_itb_walker=testsys.cpu_cluster.cpus3.mmu.stage2_itb_walker
sys=testsys

[testsys.cpu_cluster.cpus3.mmu.dtb]
type=ArmTLB
entry_type=data
eventq_index=0
is_stage2=false
next_level=testsys.cpu_cluster.cpus3.mmu.l2_shared
partial_levels=
size=64
sys=testsys

[testsys.cpu_cluster.cpus3.mmu.dtb_walker]
type=ArmTableWalker
children=power_state
clk_domain=testsys.cpu_cluster.clk_domain
eventq_index=0
is_stage2=false
num_squash_per_cycle=2
power_model=
power_state=testsys.cpu_cluster.cpus3.mmu.dtb_walker.power_state
sys=testsys
port=testsys.membus.cpu_side_ports[23]

[testsys.cpu_cluster.cpus3.mmu.dtb_walker.power_state]
type=PowerState
clk_gate_bins=20
clk_gate_max=1000000000000
clk_gate_min=1000
default_state=UNDEFINED
eventq_index=0
leaders=
possible_states=

[testsys.cpu_cluster.cpus3.mmu.itb]
type=ArmTLB
entry_type=instruction
eventq_index=0
is_stage2=false
next_level=testsys.cpu_cluster.cpus3.mmu.l2_shared
partial_levels=
size=64
sys=testsys

[testsys.cpu_cluster.cpus3.mmu.itb_walker]
type=ArmTableWalker
children=power_state
clk_domain=testsys.cpu_cluster.clk_domain
eventq_index=0
is_stage2=false
num_squash_per_cycle=2
power_model=
power_state=testsys.cpu_cluster.cpus3.mmu.itb_walker.power_state
sys=testsys
port=testsys.membus.cpu_side_ports[22]

[testsys.cpu_cluster.cpus3.mmu.itb_walker.power_state]
type=PowerState
clk_gate_bins=20
clk_gate_max=1000000000000
clk_gate_min=1000
default_state=UNDEFINED
eventq_index=0
leaders=
possible_states=

[testsys.cpu_cluster.cpus3.mmu.l2_shared]
type=ArmTLB
entry_type=unified
eventq_index=0
is_stage2=false
next_level=Null
partial_levels=L2
size=1280
sys=testsys

[testsys.cpu_cluster.cpus3.mmu.stage2_dtb]
type=ArmTLB
entry_type=data
eventq_index=0
is_stage2=true
next_level=Null
partial_levels=
size=32
sys=testsys

[testsys.cpu_cluster.cpus3.mmu.stage2_dtb_walker]
type=ArmTableWalker
children=power_state
clk_domain=testsys.cpu_cluster.clk_domain
eventq_index=0
is_stage2=true
num_squash_per_cycle=2
power_model=
power_state=testsys.cpu_cluster.cpus3.mmu.stage2_dtb_walker.power_state
sys=testsys
port=testsys.membus.cpu_side_ports[25]

[testsys.cpu_cluster.cpus3.mmu.stage2_dtb_walker.power_state]
type=PowerState
clk_gate_bins=20
clk_gate_max=1000000000000
clk_gate_min=1000
default_state=UNDEFINED
eventq_index=0
leaders=
possible_states=

[testsys.cpu_cluster.cpus3.mmu.stage2_itb]
type=ArmTLB
entry_type=instruction
eventq_index=0
is_stage2=true
next_level=Null
partial_levels=
size=32
sys=testsys

[testsys.cpu_cluster.cpus3.mmu.stage2_itb_walker]
type=ArmTableWalker
children=power_state
clk_domain=testsys.cpu_cluster.clk_domain
eventq_index=0
is_stage2=true
num_squash_per_cycle=2
power_model=
power_state=testsys.cpu_cluster.cpus3.mmu.stage2_itb_walker.power_state
sys=testsys
port=testsys.membus.cpu_side_ports[24]

[testsys.cpu_cluster.cpus3.mmu.stage2_itb_walker.power_state]
type=PowerState
clk_gate_bins=20
clk_gate_max=1000000000000
clk_gate_min=1000
default_state=UNDEFINED
eventq_index=0
leaders=
possible_states=

[testsys.cpu_cluster.cpus3.power_state]
type=PowerState
clk_gate_bins=20
clk_gate_max=1000000000000
clk_gate_min=1000
default_state=UNDEFINED
eventq_index=0
leaders=
possible_states=ON CLK_GATED OFF

[testsys.cpu_cluster.cpus3.tracer]
type=ExeTracer
eventq_index=0

[testsys.cpu_cluster.voltage_domain]
type=VoltageDomain
eventq_index=0
voltage=1.0

[testsys.dmabridge]
type=Bridge
children=power_state
clk_domain=testsys.clk_domain
delay=50000
eventq_index=0
power_model=
power_state=testsys.dmabridge.power_state
ranges=2147483648:4294967296
req_size=16
resp_size=16
cpu_side_port=testsys.iobus.mem_side_ports[1]
mem_side_port=testsys.membus.cpu_side_ports[0]

[testsys.dmabridge.power_state]
type=PowerState
clk_gate_bins=20
clk_gate_max=1000000000000
clk_gate_min=1000
default_state=UNDEFINED
eventq_index=0
leaders=
possible_states=

[testsys.dvfs_handler]
type=DVFSHandler
domains=
enable=false
eventq_index=0
sys_clk_domain=testsys.clk_domain
transition_latency=100000000

[testsys.iobridge]
type=Bridge
children=power_state
clk_domain=testsys.clk_domain
delay=50000
eventq_index=0
power_model=
power_state=testsys.iobridge.power_state
ranges=201326592:536870912 788529152:2147483648
req_size=16
resp_size=16
cpu_side_port=testsys.membus.mem_side_ports[1]
mem_side_port=testsys.iobus.cpu_side_ports[1]

[testsys.iobridge.power_state]
type=PowerState
clk_gate_bins=20
clk_gate_max=1000000000000
clk_gate_min=1000
default_state=UNDEFINED
eventq_index=0
leaders=
possible_states=

[testsys.iobus]
type=NoncoherentXBar
children=power_state
clk_domain=testsys.clk_domain
eventq_index=0
forward_latency=1
frontend_latency=2
header_latency=1
power_model=
power_state=testsys.iobus.power_state
response_latency=2
use_default_range=false
width=16
cpu_side_ports=testsys.pci_devices.dma testsys.iobridge.mem_side_port
mem_side_ports=testsys.pci_devices.pio testsys.dmabridge.cpu_side_port testsys.realview.flash1.port testsys.realview.vram.port testsys.realview.realview_io.pio testsys.realview.kmi0.pio testsys.realview.kmi1.pio testsys.realview.watchdog.pio testsys.realview.rtc.pio testsys.realview.pci_host.pio testsys.realview.energy_ctrl.pio testsys.realview.pwr_ctrl.pio testsys.realview.vio0.pio testsys.realview.vio1.pio testsys.realview.uart0.pio testsys.realview.uart1.pio testsys.realview.uart2.pio testsys.realview.uart3.pio

[testsys.iobus.power_state]
type=PowerState
clk_gate_bins=20
clk_gate_max=1000000000000
clk_gate_min=1000
default_state=UNDEFINED
eventq_index=0
leaders=
possible_states=

[testsys.mem_ctrls]
type=MemCtrl
children=dram power_state
clk_domain=testsys.clk_domain
command_window=10000
disable_sanity_check=false
dram=testsys.mem_ctrls.dram
eventq_index=0
mem_sched_policy=frfcfs
min_reads_per_switch=16
min_writes_per_switch=16
power_model=
power_state=testsys.mem_ctrls.power_state
qos_policy=Null
qos_priorities=1
qos_priority_escalation=false
qos_q_policy=fifo
qos_requestors=               
qos_syncro_scheduler=false
qos_turnaround_policy=Null
static_backend_latency=10000
static_frontend_latency=10000
system=testsys
write_high_thresh_perc=85
write_low_thresh_perc=50
port=testsys.membus.mem_side_ports[0]

[testsys.mem_ctrls.dram]
type=DRAMInterface
children=power_state
IDD0=0.055
IDD02=0.0
IDD2N=0.032
IDD2N2=0.0
IDD2P0=0.0
IDD2P02=0.0
IDD2P1=0.032
IDD2P12=0.0
IDD3N=0.038
IDD3N2=0.0
IDD3P0=0.0
IDD3P02=0.0
IDD3P1=0.038
IDD3P12=0.0
IDD4R=0.157
IDD4R2=0.0
IDD4W=0.125
IDD4W2=0.0
IDD5=0.23500000000000001
IDD52=0.0
IDD6=0.02
IDD62=0.0
VDD=1.5
VDD2=0.0
activation_limit=4
addr_mapping=RoRaBaCoCh
bank_groups_per_rank=0
banks_per_rank=8
beats_per_clock=2
burst_length=8
clk_domain=testsys.clk_domain
conf_table_reported=true
data_clock_sync=false
device_bus_width=8
device_rowbuffer_size=1024
device_size=536870912
devices_per_rank=8
dll=true
enable_dram_powerdown=false
eventq_index=0
image_file=
in_addr_map=true
kvm_map=true
max_accesses_per_row=16
null=false
page_policy=open_adaptive
power_model=
power_state=testsys.mem_ctrls.dram.power_state
range=2147483648:4294967296
ranks_per_channel=2
read_buffer_size=32
tAAD=1250
tBURST=5000
tBURST_MAX=5000
tBURST_MIN=5000
tCCD_L=0
tCCD_L_WR=0
tCK=1250
tCL=13750
tCS=2500
tCWL=13750
tPPD=0
tRAS=35000
tRCD=13750
tRCD_WR=13750
tREFI=7800000
tRFC=260000
tRP=13750
tRRD=6000
tRRD_L=0
tRTP=7500
tRTW=2500
tWR=15000
tWTR=7500
tWTR_L=7500
tXAW=30000
tXP=6000
tXPDLL=0
tXS=270000
tXSDLL=0
two_cycle_activate=false
write_buffer_size=64

[testsys.mem_ctrls.dram.power_state]
type=PowerState
clk_gate_bins=20
clk_gate_max=1000000000000
clk_gate_min=1000
default_state=UNDEFINED
eventq_index=0
leaders=
possible_states=

[testsys.mem_ctrls.power_state]
type=PowerState
clk_gate_bins=20
clk_gate_max=1000000000000
clk_gate_min=1000
default_state=UNDEFINED
eventq_index=0
leaders=
possible_states=

[testsys.membus]
type=CoherentXBar
children=badaddr_responder power_state snoop_filter
clk_domain=testsys.clk_domain
eventq_index=0
forward_latency=4
frontend_latency=3
header_latency=1
max_outstanding_snoops=512
max_routing_table_size=512
point_of_coherency=true
point_of_unification=true
power_model=
power_state=testsys.membus.power_state
response_latency=2
snoop_filter=testsys.membus.snoop_filter
snoop_response_latency=4
system=testsys
use_default_range=false
width=16